03_OpenDSS_Circuits/Flay_Circuit_Opendss/Master.dss
! ---------------------------------
!! Converted from CYME 
! DATE=June 04, 2015 at 12:41:59
! CYME_VERSION=7.10
! CYMDIST_REVISION=05
! ---------------------------------
! 
Clear    ! Always start the Master with a Clear command
! 
! Define the Circuit
! 
New Circuit.FLAY_RET_16271201 Bus1=FLAY_RET_16271201
~ BasekV= 12.47  pu= 1.03287884475196  angle= 0 
~ Z1=[ 0.34933 ,  1.69963 ] ! Actual ohms
~ Z2=[ 0.34933 ,  1.69963 ]
~ Z0=[ 0.09228 ,  0.84 ]
Redirect SourceRegulator_3ph.dss
! 
! Library Data
! 
Redirect Wiredata.dss
Redirect linespacing.dss
Redirect UGLineCodes.dss
! 
! Circuit Element Data
! 
Redirect UGLines.dss
Redirect LinesByPhase.dss
Redirect Regulators.dss
Redirect Loads_ALLOC.dss
Redirect Capacitors.dss
! 
! Set the voltage bases
! 
Set voltagebases = [ 12.47 0.480, 0.208, 0.24, 0.12]
CalcVoltageBases
! 
! Define the bus coordinates
! 
Buscoords Buscoords.CSV
! 
! Declare Energy Meter:
! 

/*
!New EnergyMeter.CircuitMeter LINE.259363665 terminal=1 option=R PhaseVoltageReport=yes
!EnergyMeter.CircuitMeter.peakcurrent=[  196.597331353572   186.718068471483   238.090235458346  ] 

! 
! Disable Capacitors for load allocation
Disable Capacitor.*
! 
AllocateLoad
AllocateLoad
AllocateLoad
Dump AllocationFactors
! 
! Enable capacitors before solving
Enable Capacitor.*
*/
